6
CH3Br_Cl, !B3LYP UseSym aug-cc-pVTZ OPT, Cs symmetry addapted (proper group is c3v)
  C   -0.24236472252912     -0.01073862326486     -0.00000004457164
  H   -0.57271835452701      0.50624579678567      0.89295661450225
  H   -0.56468503765254     -1.04424522508350     -0.00000002690954
  H   -0.57271831525735      0.50624580496305     -0.89295668565340
  Br  1.71885385282035      0.00215650804042      0.00000007910475
  Cl  -3.74234178978785      0.00194052983349      0.00000006352758
